Circuit: * Z:\home\talbanesi\GitHub\UTN_ME1_2024\Ejercicios\TP4_Osciloscopia\sim\TP4EJ12.asc

.OP point found by inspection.

Date: Thu Jul 18 20:07:41 2024
Total elapsed time: 0.085 seconds.

tnom = 27
temp = 27
method = modified trap
totiter = 2090
traniter = 2090
tranpoints = 1046
accept = 1046
rejected = 0
matrix size = 4
fillins = 0
solver = Normal
Matrix Compiler1: 136 bytes object code size  0.3/0.3/[0.2]
Matrix Compiler2: 236 bytes object code size  0.3/0.3/[0.2]

